/*--------------------------------*- C++ -*----------------------------------*\
| =========                 |                                                 |
| \      /  F ield         | OpenFOAM: The Open Source CFD Toolbox           |
|  \    /   O peration     | Version:  5                                     |
|   \  /    A nd           | Web:      www.OpenFOAM.org                      |
|    \/     M anipulation  |                                                 |
\*---------------------------------------------------------------------------*/
FoamFile
{
	version     2.0;
	format      ascii;
	class       dictionary;
	object      blockMeshDict;
}

// * * * * * * * * * * * * * * * * * * * * * * * * * * * * * * * * * * * * * //

convertToMeters 1.0;

// * * * * * * * * * * * * * * * * * * * * * * * * * * * * * * * * * * * * * //


// * * * * * * * * * * * * * * * * * * * * * * * * * * * * * * * * * * * * * //
vertices
(

//section 0

//center
(0.0 0.0 -0.012265280667719092) // 0

//polygon
( 0.004 0.0 -0.012164923272416459 ) // 1

//circles
( 0.0034641016151377548 0.0019999999999999996 -0.012164923272416459 ) // 2

//circles
( 0.0020000000000000005 0.0034641016151377543 -0.012164923272416459 ) // 3

//circles
( 2.4492935982947063e-19 0.004 -0.012164923272416459 ) // 4

//circles
( -0.001999999999999999 0.0034641016151377548 -0.012164923272416459 ) // 5

//circles
( -0.003464101615137754 0.0020000000000000013 -0.012164923272416459 ) // 6

//circles
( -0.004 4.898587196589413e-19 -0.012164923272416459 ) // 7

//circles
( -0.003464101615137755 -0.0019999999999999987 -0.012164923272416459 ) // 8

//circles
( -0.0020000000000000018 -0.0034641016151377535 -0.012164923272416459 ) // 9

//circles
( -7.347880794884119e-19 -0.004 -0.012164923272416459 ) // 10

//circles
( 0.0019999999999999974 -0.003464101615137756 -0.012164923272416459 ) // 11

//circles
( 0.0034641016151377535 -0.0020000000000000018 -0.012164923272416459 ) // 12

//circles
( 0.01025 0.0 -0.01160396639865792 ) //13
( 0.008876760388790497 0.005124999999999999 -0.01160396639865792 ) //14
( 0.005125000000000001 0.008876760388790495 -0.01160396639865792 ) //15
( 6.276314845630186e-19 0.01025 -0.01160396639865792 ) //16
( -0.005124999999999998 0.008876760388790497 -0.01160396639865792 ) //17
( -0.008876760388790495 0.005125000000000004 -0.01160396639865792 ) //18
( -0.01025 1.2552629691260371e-18 -0.01160396639865792 ) //19
( -0.008876760388790499 -0.005124999999999998 -0.01160396639865792 ) //20
( -0.0051250000000000046 -0.008876760388790494 -0.01160396639865792 ) //21
( -1.8828944536890556e-18 -0.01025 -0.01160396639865792 ) //22
( 0.005124999999999993 -0.0088767603887905 -0.01160396639865792 ) //23
( 0.008876760388790494 -0.0051250000000000046 -0.01160396639865792 ) //24
( 0.0125 0.0 -0.011279756282943657 ) //25
( 0.010825317547305485 0.0062499999999999995 -0.011279756282943657 ) //26
( 0.006250000000000002 0.010825317547305483 -0.011279756282943657 ) //27
( 7.654042494670958e-19 0.0125 -0.011279756282943657 ) //28
( -0.006249999999999998 0.010825317547305485 -0.011279756282943657 ) //29
( -0.010825317547305481 0.006250000000000005 -0.011279756282943657 ) //30
( -0.0125 1.5308084989341916e-18 -0.011279756282943657 ) //31
( -0.010825317547305487 -0.006249999999999997 -0.011279756282943657 ) //32
( -0.0062500000000000056 -0.01082531754730548 -0.011279756282943657 ) //33
( -2.296212748401287e-18 -0.0125 -0.011279756282943657 ) //34
( 0.006249999999999992 -0.010825317547305488 -0.011279756282943657 ) //35
( 0.01082531754730548 -0.0062500000000000056 -0.011279756282943657 ) //36
( 0.02 0.0 -0.009717226057402509 ) //37
( 0.017320508075688773 0.009999999999999998 -0.009717226057402509 ) //38
( 0.010000000000000002 0.017320508075688773 -0.009717226057402509 ) //39
( 1.2246467991473532e-18 0.02 -0.009717226057402509 ) //40
( -0.009999999999999995 0.017320508075688773 -0.009717226057402509 ) //41
( -0.01732050807568877 0.010000000000000007 -0.009717226057402509 ) //42
( -0.02 2.4492935982947064e-18 -0.009717226057402509 ) //43
( -0.017320508075688777 -0.009999999999999995 -0.009717226057402509 ) //44
( -0.010000000000000009 -0.01732050807568877 -0.009717226057402509 ) //45
( -3.673940397442059e-18 -0.02 -0.009717226057402509 ) //46
( 0.009999999999999986 -0.01732050807568878 -0.009717226057402509 ) //47
( 0.01732050807568877 -0.010000000000000009 -0.009717226057402509 ) //48
( 0.027 0.0 -0.007556645275418494 ) //49
( 0.023382685902179845 0.013499999999999998 -0.007556645275418494 ) //50
( 0.013500000000000003 0.02338268590217984 -0.007556645275418494 ) //51
( 1.6532731788489268e-18 0.027 -0.007556645275418494 ) //52
( -0.013499999999999995 0.023382685902179845 -0.007556645275418494 ) //53
( -0.023382685902179838 0.013500000000000009 -0.007556645275418494 ) //54
( -0.027 3.3065463576978537e-18 -0.007556645275418494 ) //55
( -0.02338268590217985 -0.013499999999999993 -0.007556645275418494 ) //56
( -0.013500000000000012 -0.023382685902179835 -0.007556645275418494 ) //57
( -4.95981953654678e-18 -0.027 -0.007556645275418494 ) //58
( 0.013499999999999983 -0.023382685902179855 -0.007556645275418494 ) //59
( 0.023382685902179835 -0.013500000000000012 -0.007556645275418494 ) //60
( 0.034 0.0 -0.004656080824834166 ) //61
( 0.029444863728670917 0.016999999999999998 -0.004656080824834166 ) //62
( 0.017000000000000005 0.029444863728670913 -0.004656080824834166 ) //63
( 2.0818995585505005e-18 0.034 -0.004656080824834166 ) //64
( -0.016999999999999994 0.029444863728670917 -0.004656080824834166 ) //65
( -0.02944486372867091 0.01700000000000001 -0.004656080824834166 ) //66
( -0.034 4.163799117101001e-18 -0.004656080824834166 ) //67
( -0.02944486372867092 -0.01699999999999999 -0.004656080824834166 ) //68
( -0.017000000000000015 -0.029444863728670907 -0.004656080824834166 ) //69
( -6.2456986756515014e-18 -0.034 -0.004656080824834166 ) //70
( 0.016999999999999977 -0.02944486372867093 -0.004656080824834166 ) //71
( 0.029444863728670907 -0.017000000000000015 -0.004656080824834166 ) //72
( 0.0425 0.0 -1.3877787807814457e-17 ) //73
( 0.036806079660838646 0.021249999999999998 -1.3877787807814457e-17 ) //74
( 0.021250000000000005 0.036806079660838646 -1.3877787807814457e-17 ) //75
( 2.6023744481881256e-18 0.0425 -1.3877787807814457e-17 ) //76
( -0.02124999999999999 0.036806079660838646 -1.3877787807814457e-17 ) //77
( -0.03680607966083864 0.021250000000000015 -1.3877787807814457e-17 ) //78
( -0.0425 5.204748896376251e-18 -1.3877787807814457e-17 ) //79
( -0.03680607966083865 -0.02124999999999999 -1.3877787807814457e-17 ) //80
( -0.02125000000000002 -0.03680607966083863 -1.3877787807814457e-17 ) //81
( -7.807123344564376e-18 -0.0425 -1.3877787807814457e-17 ) //82
( 0.021249999999999974 -0.03680607966083866 -1.3877787807814457e-17 ) //83
( 0.03680607966083863 -0.02125000000000002 -1.3877787807814457e-17 ) //84

//section 1

//center
(0.0 0.0 0.0005000000000000004) // 85

//polygon
( 0.004 0.0 0.0005000000000000004 ) // 86
( 0.0034641016151377548 0.0019999999999999996 0.0005000000000000004 ) // 87
( 0.0020000000000000005 0.0034641016151377543 0.0005000000000000004 ) // 88
( 2.4492935982947063e-19 0.004 0.0005000000000000004 ) // 89
( -0.001999999999999999 0.0034641016151377548 0.0005000000000000004 ) // 90
( -0.003464101615137754 0.0020000000000000013 0.0005000000000000004 ) // 91
( -0.004 4.898587196589413e-19 0.0005000000000000004 ) // 92
( -0.003464101615137755 -0.0019999999999999987 0.0005000000000000004 ) // 93
( -0.0020000000000000018 -0.0034641016151377535 0.0005000000000000004 ) // 94
( -7.347880794884119e-19 -0.004 0.0005000000000000004 ) // 95
( 0.0019999999999999974 -0.003464101615137756 0.0005000000000000004 ) // 96
( 0.0034641016151377535 -0.0020000000000000018 0.0005000000000000004 ) // 97

//circles

//circle 0
( 0.01025 0.0 0.0005000000000000004 ) //98
( 0.008876760388790497 0.005124999999999999 0.0005000000000000004 ) //99
( 0.005125000000000001 0.008876760388790495 0.0005000000000000004 ) //100
( 6.276314845630186e-19 0.01025 0.0005000000000000004 ) //101
( -0.005124999999999998 0.008876760388790497 0.0005000000000000004 ) //102
( -0.008876760388790495 0.005125000000000004 0.0005000000000000004 ) //103
( -0.01025 1.2552629691260371e-18 0.0005000000000000004 ) //104
( -0.008876760388790499 -0.005124999999999998 0.0005000000000000004 ) //105
( -0.0051250000000000046 -0.008876760388790494 0.0005000000000000004 ) //106
( -1.8828944536890556e-18 -0.01025 0.0005000000000000004 ) //107
( 0.005124999999999993 -0.0088767603887905 0.0005000000000000004 ) //108
( 0.008876760388790494 -0.0051250000000000046 0.0005000000000000004 ) //109

//circle 1
( 0.0125 0.0 0.0005000000000000004 ) //110
( 0.010825317547305485 0.0062499999999999995 0.0005000000000000004 ) //111
( 0.006250000000000002 0.010825317547305483 0.0005000000000000004 ) //112
( 7.654042494670958e-19 0.0125 0.0005000000000000004 ) //113
( -0.006249999999999998 0.010825317547305485 0.0005000000000000004 ) //114
( -0.010825317547305481 0.006250000000000005 0.0005000000000000004 ) //115
( -0.0125 1.5308084989341916e-18 0.0005000000000000004 ) //116
( -0.010825317547305487 -0.006249999999999997 0.0005000000000000004 ) //117
( -0.0062500000000000056 -0.01082531754730548 0.0005000000000000004 ) //118
( -2.296212748401287e-18 -0.0125 0.0005000000000000004 ) //119
( 0.006249999999999992 -0.010825317547305488 0.0005000000000000004 ) //120
( 0.01082531754730548 -0.0062500000000000056 0.0005000000000000004 ) //121

//circle 2
( 0.02 0.0 0.0005000000000000004 ) //122
( 0.017320508075688773 0.009999999999999998 0.0005000000000000004 ) //123
( 0.010000000000000002 0.017320508075688773 0.0005000000000000004 ) //124
( 1.2246467991473532e-18 0.02 0.0005000000000000004 ) //125
( -0.009999999999999995 0.017320508075688773 0.0005000000000000004 ) //126
( -0.01732050807568877 0.010000000000000007 0.0005000000000000004 ) //127
( -0.02 2.4492935982947064e-18 0.0005000000000000004 ) //128
( -0.017320508075688777 -0.009999999999999995 0.0005000000000000004 ) //129
( -0.010000000000000009 -0.01732050807568877 0.0005000000000000004 ) //130
( -3.673940397442059e-18 -0.02 0.0005000000000000004 ) //131
( 0.009999999999999986 -0.01732050807568878 0.0005000000000000004 ) //132
( 0.01732050807568877 -0.010000000000000009 0.0005000000000000004 ) //133

//circle 3
( 0.027 0.0 0.0005000000000000004 ) //134
( 0.023382685902179845 0.013499999999999998 0.0005000000000000004 ) //135
( 0.013500000000000003 0.02338268590217984 0.0005000000000000004 ) //136
( 1.6532731788489268e-18 0.027 0.0005000000000000004 ) //137
( -0.013499999999999995 0.023382685902179845 0.0005000000000000004 ) //138
( -0.023382685902179838 0.013500000000000009 0.0005000000000000004 ) //139
( -0.027 3.3065463576978537e-18 0.0005000000000000004 ) //140
( -0.02338268590217985 -0.013499999999999993 0.0005000000000000004 ) //141
( -0.013500000000000012 -0.023382685902179835 0.0005000000000000004 ) //142
( -4.95981953654678e-18 -0.027 0.0005000000000000004 ) //143
( 0.013499999999999983 -0.023382685902179855 0.0005000000000000004 ) //144
( 0.023382685902179835 -0.013500000000000012 0.0005000000000000004 ) //145

//circle 4
( 0.034 0.0 0.0005000000000000004 ) //146
( 0.029444863728670917 0.016999999999999998 0.0005000000000000004 ) //147
( 0.017000000000000005 0.029444863728670913 0.0005000000000000004 ) //148
( 2.0818995585505005e-18 0.034 0.0005000000000000004 ) //149
( -0.016999999999999994 0.029444863728670917 0.0005000000000000004 ) //150
( -0.02944486372867091 0.01700000000000001 0.0005000000000000004 ) //151
( -0.034 4.163799117101001e-18 0.0005000000000000004 ) //152
( -0.02944486372867092 -0.01699999999999999 0.0005000000000000004 ) //153
( -0.017000000000000015 -0.029444863728670907 0.0005000000000000004 ) //154
( -6.2456986756515014e-18 -0.034 0.0005000000000000004 ) //155
( 0.016999999999999977 -0.02944486372867093 0.0005000000000000004 ) //156
( 0.029444863728670907 -0.017000000000000015 0.0005000000000000004 ) //157

//circle 5
( 0.0425 0.0 0.0005000000000000004 ) //158
( 0.036806079660838646 0.021249999999999998 0.0005000000000000004 ) //159
( 0.021250000000000005 0.036806079660838646 0.0005000000000000004 ) //160
( 2.6023744481881256e-18 0.0425 0.0005000000000000004 ) //161
( -0.02124999999999999 0.036806079660838646 0.0005000000000000004 ) //162
( -0.03680607966083864 0.021250000000000015 0.0005000000000000004 ) //163
( -0.0425 5.204748896376251e-18 0.0005000000000000004 ) //164
( -0.03680607966083865 -0.02124999999999999 0.0005000000000000004 ) //165
( -0.02125000000000002 -0.03680607966083863 0.0005000000000000004 ) //166
( -7.807123344564376e-18 -0.0425 0.0005000000000000004 ) //167
( 0.021249999999999974 -0.03680607966083866 0.0005000000000000004 ) //168
( 0.03680607966083863 -0.02125000000000002 0.0005000000000000004 ) //169

//section 2

//center
(0.0 0.0 0.0041) // 170

//polygon
( 0.004 0.0 0.0041 ) // 171
( 0.0034641016151377548 0.0019999999999999996 0.0041 ) // 172
( 0.0020000000000000005 0.0034641016151377543 0.0041 ) // 173
( 2.4492935982947063e-19 0.004 0.0041 ) // 174
( -0.001999999999999999 0.0034641016151377548 0.0041 ) // 175
( -0.003464101615137754 0.0020000000000000013 0.0041 ) // 176
( -0.004 4.898587196589413e-19 0.0041 ) // 177
( -0.003464101615137755 -0.0019999999999999987 0.0041 ) // 178
( -0.0020000000000000018 -0.0034641016151377535 0.0041 ) // 179
( -7.347880794884119e-19 -0.004 0.0041 ) // 180
( 0.0019999999999999974 -0.003464101615137756 0.0041 ) // 181
( 0.0034641016151377535 -0.0020000000000000018 0.0041 ) // 182

//circles

//circle 0
( 0.01025 0.0 0.0041 ) //183
( 0.008876760388790497 0.005124999999999999 0.0041 ) //184
( 0.005125000000000001 0.008876760388790495 0.0041 ) //185
( 6.276314845630186e-19 0.01025 0.0041 ) //186
( -0.005124999999999998 0.008876760388790497 0.0041 ) //187
( -0.008876760388790495 0.005125000000000004 0.0041 ) //188
( -0.01025 1.2552629691260371e-18 0.0041 ) //189
( -0.008876760388790499 -0.005124999999999998 0.0041 ) //190
( -0.0051250000000000046 -0.008876760388790494 0.0041 ) //191
( -1.8828944536890556e-18 -0.01025 0.0041 ) //192
( 0.005124999999999993 -0.0088767603887905 0.0041 ) //193
( 0.008876760388790494 -0.0051250000000000046 0.0041 ) //194

//circle 1
( 0.0125 0.0 0.0041 ) //195
( 0.010825317547305485 0.0062499999999999995 0.0041 ) //196
( 0.006250000000000002 0.010825317547305483 0.0041 ) //197
( 7.654042494670958e-19 0.0125 0.0041 ) //198
( -0.006249999999999998 0.010825317547305485 0.0041 ) //199
( -0.010825317547305481 0.006250000000000005 0.0041 ) //200
( -0.0125 1.5308084989341916e-18 0.0041 ) //201
( -0.010825317547305487 -0.006249999999999997 0.0041 ) //202
( -0.0062500000000000056 -0.01082531754730548 0.0041 ) //203
( -2.296212748401287e-18 -0.0125 0.0041 ) //204
( 0.006249999999999992 -0.010825317547305488 0.0041 ) //205
( 0.01082531754730548 -0.0062500000000000056 0.0041 ) //206

//circle 2
( 0.02 0.0 0.0041 ) //207
( 0.017320508075688773 0.009999999999999998 0.0041 ) //208
( 0.010000000000000002 0.017320508075688773 0.0041 ) //209
( 1.2246467991473532e-18 0.02 0.0041 ) //210
( -0.009999999999999995 0.017320508075688773 0.0041 ) //211
( -0.01732050807568877 0.010000000000000007 0.0041 ) //212
( -0.02 2.4492935982947064e-18 0.0041 ) //213
( -0.017320508075688777 -0.009999999999999995 0.0041 ) //214
( -0.010000000000000009 -0.01732050807568877 0.0041 ) //215
( -3.673940397442059e-18 -0.02 0.0041 ) //216
( 0.009999999999999986 -0.01732050807568878 0.0041 ) //217
( 0.01732050807568877 -0.010000000000000009 0.0041 ) //218

//circle 3
( 0.027 0.0 0.0041 ) //219
( 0.023382685902179845 0.013499999999999998 0.0041 ) //220
( 0.013500000000000003 0.02338268590217984 0.0041 ) //221
( 1.6532731788489268e-18 0.027 0.0041 ) //222
( -0.013499999999999995 0.023382685902179845 0.0041 ) //223
( -0.023382685902179838 0.013500000000000009 0.0041 ) //224
( -0.027 3.3065463576978537e-18 0.0041 ) //225
( -0.02338268590217985 -0.013499999999999993 0.0041 ) //226
( -0.013500000000000012 -0.023382685902179835 0.0041 ) //227
( -4.95981953654678e-18 -0.027 0.0041 ) //228
( 0.013499999999999983 -0.023382685902179855 0.0041 ) //229
( 0.023382685902179835 -0.013500000000000012 0.0041 ) //230

//circle 4
( 0.034 0.0 0.0041 ) //231
( 0.029444863728670917 0.016999999999999998 0.0041 ) //232
( 0.017000000000000005 0.029444863728670913 0.0041 ) //233
( 2.0818995585505005e-18 0.034 0.0041 ) //234
( -0.016999999999999994 0.029444863728670917 0.0041 ) //235
( -0.02944486372867091 0.01700000000000001 0.0041 ) //236
( -0.034 4.163799117101001e-18 0.0041 ) //237
( -0.02944486372867092 -0.01699999999999999 0.0041 ) //238
( -0.017000000000000015 -0.029444863728670907 0.0041 ) //239
( -6.2456986756515014e-18 -0.034 0.0041 ) //240
( 0.016999999999999977 -0.02944486372867093 0.0041 ) //241
( 0.029444863728670907 -0.017000000000000015 0.0041 ) //242

//circle 5
( 0.0425 0.0 0.0041 ) //243
( 0.036806079660838646 0.021249999999999998 0.0041 ) //244
( 0.021250000000000005 0.036806079660838646 0.0041 ) //245
( 2.6023744481881256e-18 0.0425 0.0041 ) //246
( -0.02124999999999999 0.036806079660838646 0.0041 ) //247
( -0.03680607966083864 0.021250000000000015 0.0041 ) //248
( -0.0425 5.204748896376251e-18 0.0041 ) //249
( -0.03680607966083865 -0.02124999999999999 0.0041 ) //250
( -0.02125000000000002 -0.03680607966083863 0.0041 ) //251
( -7.807123344564376e-18 -0.0425 0.0041 ) //252
( 0.021249999999999974 -0.03680607966083866 0.0041 ) //253
( 0.03680607966083863 -0.02125000000000002 0.0041 ) //254

//section 3

//center
(0.0 0.0 0.0059) // 255

//polygon
( 0.004 0.0 0.0059 ) // 256
( 0.0034641016151377548 0.0019999999999999996 0.0059 ) // 257
( 0.0020000000000000005 0.0034641016151377543 0.0059 ) // 258
( 2.4492935982947063e-19 0.004 0.0059 ) // 259
( -0.001999999999999999 0.0034641016151377548 0.0059 ) // 260
( -0.003464101615137754 0.0020000000000000013 0.0059 ) // 261
( -0.004 4.898587196589413e-19 0.0059 ) // 262
( -0.003464101615137755 -0.0019999999999999987 0.0059 ) // 263
( -0.0020000000000000018 -0.0034641016151377535 0.0059 ) // 264
( -7.347880794884119e-19 -0.004 0.0059 ) // 265
( 0.0019999999999999974 -0.003464101615137756 0.0059 ) // 266
( 0.0034641016151377535 -0.0020000000000000018 0.0059 ) // 267

//circles

//circle 0
( 0.01025 0.0 0.0059 ) //268
( 0.008876760388790497 0.005124999999999999 0.0059 ) //269
( 0.005125000000000001 0.008876760388790495 0.0059 ) //270
( 6.276314845630186e-19 0.01025 0.0059 ) //271
( -0.005124999999999998 0.008876760388790497 0.0059 ) //272
( -0.008876760388790495 0.005125000000000004 0.0059 ) //273
( -0.01025 1.2552629691260371e-18 0.0059 ) //274
( -0.008876760388790499 -0.005124999999999998 0.0059 ) //275
( -0.0051250000000000046 -0.008876760388790494 0.0059 ) //276
( -1.8828944536890556e-18 -0.01025 0.0059 ) //277
( 0.005124999999999993 -0.0088767603887905 0.0059 ) //278
( 0.008876760388790494 -0.0051250000000000046 0.0059 ) //279

//circle 1
( 0.0125 0.0 0.0059 ) //280
( 0.010825317547305485 0.0062499999999999995 0.0059 ) //281
( 0.006250000000000002 0.010825317547305483 0.0059 ) //282
( 7.654042494670958e-19 0.0125 0.0059 ) //283
( -0.006249999999999998 0.010825317547305485 0.0059 ) //284
( -0.010825317547305481 0.006250000000000005 0.0059 ) //285
( -0.0125 1.5308084989341916e-18 0.0059 ) //286
( -0.010825317547305487 -0.006249999999999997 0.0059 ) //287
( -0.0062500000000000056 -0.01082531754730548 0.0059 ) //288
( -2.296212748401287e-18 -0.0125 0.0059 ) //289
( 0.006249999999999992 -0.010825317547305488 0.0059 ) //290
( 0.01082531754730548 -0.0062500000000000056 0.0059 ) //291

//circle 2
( 0.02 0.0 0.0059 ) //292
( 0.017320508075688773 0.009999999999999998 0.0059 ) //293
( 0.010000000000000002 0.017320508075688773 0.0059 ) //294
( 1.2246467991473532e-18 0.02 0.0059 ) //295
( -0.009999999999999995 0.017320508075688773 0.0059 ) //296
( -0.01732050807568877 0.010000000000000007 0.0059 ) //297
( -0.02 2.4492935982947064e-18 0.0059 ) //298
( -0.017320508075688777 -0.009999999999999995 0.0059 ) //299
( -0.010000000000000009 -0.01732050807568877 0.0059 ) //300
( -3.673940397442059e-18 -0.02 0.0059 ) //301
( 0.009999999999999986 -0.01732050807568878 0.0059 ) //302
( 0.01732050807568877 -0.010000000000000009 0.0059 ) //303

//circle 3
( 0.027 0.0 0.0059 ) //304
( 0.023382685902179845 0.013499999999999998 0.0059 ) //305
( 0.013500000000000003 0.02338268590217984 0.0059 ) //306
( 1.6532731788489268e-18 0.027 0.0059 ) //307
( -0.013499999999999995 0.023382685902179845 0.0059 ) //308
( -0.023382685902179838 0.013500000000000009 0.0059 ) //309
( -0.027 3.3065463576978537e-18 0.0059 ) //310
( -0.02338268590217985 -0.013499999999999993 0.0059 ) //311
( -0.013500000000000012 -0.023382685902179835 0.0059 ) //312
( -4.95981953654678e-18 -0.027 0.0059 ) //313
( 0.013499999999999983 -0.023382685902179855 0.0059 ) //314
( 0.023382685902179835 -0.013500000000000012 0.0059 ) //315

//circle 4
( 0.034 0.0 0.0059 ) //316
( 0.029444863728670917 0.016999999999999998 0.0059 ) //317
( 0.017000000000000005 0.029444863728670913 0.0059 ) //318
( 2.0818995585505005e-18 0.034 0.0059 ) //319
( -0.016999999999999994 0.029444863728670917 0.0059 ) //320
( -0.02944486372867091 0.01700000000000001 0.0059 ) //321
( -0.034 4.163799117101001e-18 0.0059 ) //322
( -0.02944486372867092 -0.01699999999999999 0.0059 ) //323
( -0.017000000000000015 -0.029444863728670907 0.0059 ) //324
( -6.2456986756515014e-18 -0.034 0.0059 ) //325
( 0.016999999999999977 -0.02944486372867093 0.0059 ) //326
( 0.029444863728670907 -0.017000000000000015 0.0059 ) //327

//circle 5
( 0.0425 0.0 0.0059 ) //328
( 0.036806079660838646 0.021249999999999998 0.0059 ) //329
( 0.021250000000000005 0.036806079660838646 0.0059 ) //330
( 2.6023744481881256e-18 0.0425 0.0059 ) //331
( -0.02124999999999999 0.036806079660838646 0.0059 ) //332
( -0.03680607966083864 0.021250000000000015 0.0059 ) //333
( -0.0425 5.204748896376251e-18 0.0059 ) //334
( -0.03680607966083865 -0.02124999999999999 0.0059 ) //335
( -0.02125000000000002 -0.03680607966083863 0.0059 ) //336
( -7.807123344564376e-18 -0.0425 0.0059 ) //337
( 0.021249999999999974 -0.03680607966083866 0.0059 ) //338
( 0.03680607966083863 -0.02125000000000002 0.0059 ) //339

//section 4

//center
(0.0 0.0 0.0095) // 340

//polygon
( 0.004 0.0 0.0095 ) // 341
( 0.0034641016151377548 0.0019999999999999996 0.0095 ) // 342
( 0.0020000000000000005 0.0034641016151377543 0.0095 ) // 343
( 2.4492935982947063e-19 0.004 0.0095 ) // 344
( -0.001999999999999999 0.0034641016151377548 0.0095 ) // 345
( -0.003464101615137754 0.0020000000000000013 0.0095 ) // 346
( -0.004 4.898587196589413e-19 0.0095 ) // 347
( -0.003464101615137755 -0.0019999999999999987 0.0095 ) // 348
( -0.0020000000000000018 -0.0034641016151377535 0.0095 ) // 349
( -7.347880794884119e-19 -0.004 0.0095 ) // 350
( 0.0019999999999999974 -0.003464101615137756 0.0095 ) // 351
( 0.0034641016151377535 -0.0020000000000000018 0.0095 ) // 352

//circles

//circle 0
( 0.01025 0.0 0.0095 ) //353
( 0.008876760388790497 0.005124999999999999 0.0095 ) //354
( 0.005125000000000001 0.008876760388790495 0.0095 ) //355
( 6.276314845630186e-19 0.01025 0.0095 ) //356
( -0.005124999999999998 0.008876760388790497 0.0095 ) //357
( -0.008876760388790495 0.005125000000000004 0.0095 ) //358
( -0.01025 1.2552629691260371e-18 0.0095 ) //359
( -0.008876760388790499 -0.005124999999999998 0.0095 ) //360
( -0.0051250000000000046 -0.008876760388790494 0.0095 ) //361
( -1.8828944536890556e-18 -0.01025 0.0095 ) //362
( 0.005124999999999993 -0.0088767603887905 0.0095 ) //363
( 0.008876760388790494 -0.0051250000000000046 0.0095 ) //364

//circle 1
( 0.0125 0.0 0.0095 ) //365
( 0.010825317547305485 0.0062499999999999995 0.0095 ) //366
( 0.006250000000000002 0.010825317547305483 0.0095 ) //367
( 7.654042494670958e-19 0.0125 0.0095 ) //368
( -0.006249999999999998 0.010825317547305485 0.0095 ) //369
( -0.010825317547305481 0.006250000000000005 0.0095 ) //370
( -0.0125 1.5308084989341916e-18 0.0095 ) //371
( -0.010825317547305487 -0.006249999999999997 0.0095 ) //372
( -0.0062500000000000056 -0.01082531754730548 0.0095 ) //373
( -2.296212748401287e-18 -0.0125 0.0095 ) //374
( 0.006249999999999992 -0.010825317547305488 0.0095 ) //375
( 0.01082531754730548 -0.0062500000000000056 0.0095 ) //376

//circle 2
( 0.02 0.0 0.0095 ) //377
( 0.017320508075688773 0.009999999999999998 0.0095 ) //378
( 0.010000000000000002 0.017320508075688773 0.0095 ) //379
( 1.2246467991473532e-18 0.02 0.0095 ) //380
( -0.009999999999999995 0.017320508075688773 0.0095 ) //381
( -0.01732050807568877 0.010000000000000007 0.0095 ) //382
( -0.02 2.4492935982947064e-18 0.0095 ) //383
( -0.017320508075688777 -0.009999999999999995 0.0095 ) //384
( -0.010000000000000009 -0.01732050807568877 0.0095 ) //385
( -3.673940397442059e-18 -0.02 0.0095 ) //386
( 0.009999999999999986 -0.01732050807568878 0.0095 ) //387
( 0.01732050807568877 -0.010000000000000009 0.0095 ) //388

//circle 3
( 0.027 0.0 0.0095 ) //389
( 0.023382685902179845 0.013499999999999998 0.0095 ) //390
( 0.013500000000000003 0.02338268590217984 0.0095 ) //391
( 1.6532731788489268e-18 0.027 0.0095 ) //392
( -0.013499999999999995 0.023382685902179845 0.0095 ) //393
( -0.023382685902179838 0.013500000000000009 0.0095 ) //394
( -0.027 3.3065463576978537e-18 0.0095 ) //395
( -0.02338268590217985 -0.013499999999999993 0.0095 ) //396
( -0.013500000000000012 -0.023382685902179835 0.0095 ) //397
( -4.95981953654678e-18 -0.027 0.0095 ) //398
( 0.013499999999999983 -0.023382685902179855 0.0095 ) //399
( 0.023382685902179835 -0.013500000000000012 0.0095 ) //400

//circle 4
( 0.034 0.0 0.0095 ) //401
( 0.029444863728670917 0.016999999999999998 0.0095 ) //402
( 0.017000000000000005 0.029444863728670913 0.0095 ) //403
( 2.0818995585505005e-18 0.034 0.0095 ) //404
( -0.016999999999999994 0.029444863728670917 0.0095 ) //405
( -0.02944486372867091 0.01700000000000001 0.0095 ) //406
( -0.034 4.163799117101001e-18 0.0095 ) //407
( -0.02944486372867092 -0.01699999999999999 0.0095 ) //408
( -0.017000000000000015 -0.029444863728670907 0.0095 ) //409
( -6.2456986756515014e-18 -0.034 0.0095 ) //410
( 0.016999999999999977 -0.02944486372867093 0.0095 ) //411
( 0.029444863728670907 -0.017000000000000015 0.0095 ) //412

//circle 5
( 0.0425 0.0 0.0095 ) //413
( 0.036806079660838646 0.021249999999999998 0.0095 ) //414
( 0.021250000000000005 0.036806079660838646 0.0095 ) //415
( 2.6023744481881256e-18 0.0425 0.0095 ) //416
( -0.02124999999999999 0.036806079660838646 0.0095 ) //417
( -0.03680607966083864 0.021250000000000015 0.0095 ) //418
( -0.0425 5.204748896376251e-18 0.0095 ) //419
( -0.03680607966083865 -0.02124999999999999 0.0095 ) //420
( -0.02125000000000002 -0.03680607966083863 0.0095 ) //421
( -7.807123344564376e-18 -0.0425 0.0095 ) //422
( 0.021249999999999974 -0.03680607966083866 0.0095 ) //423
( 0.03680607966083863 -0.02125000000000002 0.0095 ) //424

//section 5

//center
(0.0 0.0 0.028) // 425

//polygon
( 0.004 0.0 0.028 ) // 426
( 0.0034641016151377548 0.0019999999999999996 0.028 ) // 427
( 0.0020000000000000005 0.0034641016151377543 0.028 ) // 428
( 2.4492935982947063e-19 0.004 0.028 ) // 429
( -0.001999999999999999 0.0034641016151377548 0.028 ) // 430
( -0.003464101615137754 0.0020000000000000013 0.028 ) // 431
( -0.004 4.898587196589413e-19 0.028 ) // 432
( -0.003464101615137755 -0.0019999999999999987 0.028 ) // 433
( -0.0020000000000000018 -0.0034641016151377535 0.028 ) // 434
( -7.347880794884119e-19 -0.004 0.028 ) // 435
( 0.0019999999999999974 -0.003464101615137756 0.028 ) // 436
( 0.0034641016151377535 -0.0020000000000000018 0.028 ) // 437

//circles

//circle 0
( 0.01025 0.0 0.028 ) //438
( 0.008876760388790497 0.005124999999999999 0.028 ) //439
( 0.005125000000000001 0.008876760388790495 0.028 ) //440
( 6.276314845630186e-19 0.01025 0.028 ) //441
( -0.005124999999999998 0.008876760388790497 0.028 ) //442
( -0.008876760388790495 0.005125000000000004 0.028 ) //443
( -0.01025 1.2552629691260371e-18 0.028 ) //444
( -0.008876760388790499 -0.005124999999999998 0.028 ) //445
( -0.0051250000000000046 -0.008876760388790494 0.028 ) //446
( -1.8828944536890556e-18 -0.01025 0.028 ) //447
( 0.005124999999999993 -0.0088767603887905 0.028 ) //448
( 0.008876760388790494 -0.0051250000000000046 0.028 ) //449

//circle 1
( 0.0125 0.0 0.028 ) //450
( 0.010825317547305485 0.0062499999999999995 0.028 ) //451
( 0.006250000000000002 0.010825317547305483 0.028 ) //452
( 7.654042494670958e-19 0.0125 0.028 ) //453
( -0.006249999999999998 0.010825317547305485 0.028 ) //454
( -0.010825317547305481 0.006250000000000005 0.028 ) //455
( -0.0125 1.5308084989341916e-18 0.028 ) //456
( -0.010825317547305487 -0.006249999999999997 0.028 ) //457
( -0.0062500000000000056 -0.01082531754730548 0.028 ) //458
( -2.296212748401287e-18 -0.0125 0.028 ) //459
( 0.006249999999999992 -0.010825317547305488 0.028 ) //460
( 0.01082531754730548 -0.0062500000000000056 0.028 ) //461

//circle 2
( 0.02 0.0 0.028 ) //462
( 0.017320508075688773 0.009999999999999998 0.028 ) //463
( 0.010000000000000002 0.017320508075688773 0.028 ) //464
( 1.2246467991473532e-18 0.02 0.028 ) //465
( -0.009999999999999995 0.017320508075688773 0.028 ) //466
( -0.01732050807568877 0.010000000000000007 0.028 ) //467
( -0.02 2.4492935982947064e-18 0.028 ) //468
( -0.017320508075688777 -0.009999999999999995 0.028 ) //469
( -0.010000000000000009 -0.01732050807568877 0.028 ) //470
( -3.673940397442059e-18 -0.02 0.028 ) //471
( 0.009999999999999986 -0.01732050807568878 0.028 ) //472
( 0.01732050807568877 -0.010000000000000009 0.028 ) //473

//circle 3
( 0.027 0.0 0.028 ) //474
( 0.023382685902179845 0.013499999999999998 0.028 ) //475
( 0.013500000000000003 0.02338268590217984 0.028 ) //476
( 1.6532731788489268e-18 0.027 0.028 ) //477
( -0.013499999999999995 0.023382685902179845 0.028 ) //478
( -0.023382685902179838 0.013500000000000009 0.028 ) //479
( -0.027 3.3065463576978537e-18 0.028 ) //480
( -0.02338268590217985 -0.013499999999999993 0.028 ) //481