/*--------------------------------*- C++ -*----------------------------------*\
  =========                 |
  \\      /  F ield         | OpenFOAM: The Open Source CFD Toolbox
   \\    /   O peration     | Website:  https://openfoam.org
    \\  /    A nd           | Version:  13
     \\/     M anipulation  |
\*---------------------------------------------------------------------------*/
FoamFile
{
    format      ascii;
    class       polyBoundaryMesh;
    location    "constant/polyMesh";
    object      boundary;
}
// * * * * * * * * * * * * * * * * * * * * * * * * * * * * * * * * * * * * * //

3
(
    outlet
    {
        type            patch;
        nFaces          1224;
        startFace       402096;
    }
    propeller
    {
        type            wall;
        inGroups        List<word> 1(wall);
        nFaces          10608;
        startFace       403320;
    }
    walls
    {
        type            wall;
        inGroups        List<word> 1(wall);
        nFaces          15072;
        startFace       413928;
    }
)

// ************************************************************************* //
